Circuit: * C:\Users\sjfre\Documents\LTSpice Sims\Lab 4A\SingleCurrent.asc

Direct Newton iteration for .op point succeeded.

Date: Wed Apr  8 12:21:27 2020
Total elapsed time: 0.100 seconds.

tnom = 27
temp = 27
method = modified trap
totiter = 2098
traniter = 2088
tranpoints = 1045
accept = 1045
rejected = 0
matrix size = 15
fillins = 2
solver = Normal
Matrix Compiler1: 1014 bytes object code size  0.2/0.1/[0.1]
Matrix Compiler2: 1.21 KB object code size  0.1/0.2/[0.1]

