Circuit: * C:\Users\sjfre\Documents\LTSpice Sims\Lab 3A\MotorCircuit.asc

ERROR: Node X2:N002 is floating and connected to current source B:X2:P

WARNING: Less than two connections to node ENC.  This node is used by R:X2:1.
Direct Newton iteration failed to find .op point.  (Use ".option noopiter" to skip.)
Starting Gmin stepping
Gmin = 10
Gmin = 1.07374
Gmin = 0.115292
Gmin = 0.0123794
vernier = 0.5
vernier = 0.25
vernier = 0.125
Gmin = 0.00662824
vernier = 0.0625
vernier = 0.03125
vernier = 0.015625
vernier = 0.0078125
Gmin = 0.00640237
vernier = 0.00390625
vernier = 0.00195313
vernier = 0.000976563
vernier = 0.000488281
Gmin = 0.00639769
Gmin = 0
Gmin stepping failed

Starting source stepping with srcstepmethod=0
Source Step = 3.0303%
vernier = 0.25
Source Step = 0.20419%
Starting source stepping with srcstepmethod=1
Source Step = 3.0303%
vernier = 0.25
Source stepping failed

Pseudo Transient failed in finding the operating point at 6.19535 ms.
Trouble finding operating point....skipping operating point for Transient analysis.
Changing Tseed to 1e-07
to 2e-07

Date: Mon Mar 16 13:15:09 2020
Total elapsed time: 4.086 seconds.

tnom = 27
temp = 27
method = modified trap
totiter = 491430
traniter = 476010
tranpoints = 130856
accept = 95000
rejected = 36134
matrix size = 25
fillins = 19
solver = Normal
Matrix Compiler1: 2.76 KB object code size  0.5/0.3/[0.2]
Matrix Compiler2: off  [0.4]/0.7/0.5

