Circuit: * C:\Users\sjfre\Documents\LTSpice Sims\Lab 4B\TriangleMotor.asc

ERROR: Node X3:N002 is floating and connected to current source B:X3:P

WARNING: Less than two connections to node ENC.  This node is used by R:X3:1.
Per .tran options, skipping operating point for transient analysis.
Changing Tseed to 1e-08
Changing Tseed to 1e-10

Date: Fri Apr 10 16:04:18 2020
Total elapsed time: 2.363 seconds.

tnom = 27
temp = 27
method = modified trap
totiter = 302210
traniter = 302210
tranpoints = 81692
accept = 59259
rejected = 22431
matrix size = 51
fillins = 14
solver = Normal
Matrix Compiler1: 3.36 KB object code size  0.9/0.5/[0.2]
Matrix Compiler2: 4.23 KB object code size  0.5/0.5/[0.2]

