Circuit: * C:\Users\sjfre\Documents\LTSpice Sims\Lab 4B\Triangle.asc

Per .tran options, skipping operating point for transient analysis.

Date: Fri Apr 10 15:44:05 2020
Total elapsed time: 0.325 seconds.

tnom = 27
temp = 27
method = modified trap
totiter = 8650
traniter = 8650
tranpoints = 2409
accept = 2067
rejected = 342
matrix size = 26
fillins = 1
solver = Normal
Matrix Compiler1: 1.28 KB object code size  0.3/0.2/[0.1]
Matrix Compiler2: 1.96 KB object code size  0.2/0.2/[0.1]

