Circuit: * C:\Users\sjfre\Documents\LTSpice Sims\Lab 5B\AnalogModel.asc

Direct Newton iteration failed to find .op point.  (Use ".option noopiter" to skip.)
Starting Gmin stepping
Gmin = 10
Gmin = 1.07374
Gmin = 0.115292
Gmin = 0.0123794
Gmin = 0.00132923
vernier = 0.5
Gmin = 0.000247786
vernier = 0.25
vernier = 0.333333
Gmin = 0.000143928
vernier = 0.444444
vernier = 0.592592
Gmin = 5.23983e-05
vernier = 0.790123
Gmin = 1.06634e-05
vernier = 1
Gmin = 1.19514e-06
Gmin = 1.28327e-07
Gmin = 1.3779e-08
Gmin = 1.47951e-09
Gmin = 1.58861e-10
Gmin = 1.70576e-11
Gmin = 1.83154e-12
Gmin = 1.9666e-13
Gmin = 0
Gmin stepping succeeded in finding the operating point.


Date: Thu Apr 30 10:28:58 2020
Total elapsed time: 0.066 seconds.

tnom = 27
temp = 27
method = trap
totiter = 769
traniter = 0
tranpoints = 0
accept = 0
rejected = 0
matrix size = 25
fillins = 10
solver = Normal
Matrix Compiler1:      97 opcodes
Matrix Compiler2: off  [0.2]/0.3/0.4

