Circuit: * C:\Users\sjfre\Documents\LTSpice Sims\Lab 5B\Draft1.asc

Direct Newton iteration for .op point succeeded.

Date: Tue May  5 14:20:58 2020
Total elapsed time: 0.059 seconds.

tnom = 27
temp = 27
method = trap
totiter = 41
traniter = 0
tranpoints = 0
accept = 0
rejected = 0
matrix size = 6
fillins = 1
solver = Normal
Matrix Compiler1:      18 opcodes
Matrix Compiler2:      40 opcodes
