Circuit: * C:\Users\sjfre\Documents\LTSpice Sims\Lab 2B\DC_motor_model_test.asc

ERROR: Node X1:N002 is floating and connected to current source B:X1:P

WARNING: Less than two connections to node PULSE.  This node is used by R:X1:1.
Direct Newton iteration for .op point succeeded.

Date: Thu Feb 13 11:11:45 2020
Total elapsed time: 0.776 seconds.

tnom = 27
temp = 27
method = modified trap
totiter = 52387
traniter = 52384
tranpoints = 14892
accept = 10929
rejected = 3963
matrix size = 11
fillins = 2
solver = Normal
Matrix Compiler1: 360 bytes object code size  0.4/0.2/[0.2]
Matrix Compiler2: 699 bytes object code size  0.3/0.4/[0.2]

